
     RDKit          3D

 39 42  0  0  0  0  0  0  0  0999 V2000
   31.2000   31.3700   22.1400 C   0  0  0  0  0  0  0  0  0  0  0  0
   32.0300   32.5200   22.1700 C   0  0  1  0  0  0  0  0  0  0  0  0
   31.3800   30.3900   23.1500 C   0  0  2  0  0  0  0  0  0  0  0  0
   28.8000   27.8100   27.9200 C   0  0  0  0  0  0  0  0  0  0  0  0
   33.0500   32.7100   23.1500 C   0  0  1  0  0  0  0  0  0  0  0  0
   27.5400   27.8100   28.5800 C   0  0  0  0  0  0  0  0  0  0  0  0
   29.7800   29.2000   29.5800 C   0  0  2  0  0  0  0  0  0  0  0  0
   27.0100   29.3400   31.7700 C   0  0  2  0  0  0  0  0  0  0  0  0
   32.4000   30.5500   24.1500 C   0  0  1  0  0  0  0  0  0  0  0  0
   29.9600   28.5200   28.4100 C   0  0  2  0  0  0  0  0  0  0  0  0
   32.9600   29.6900   25.2100 C   0  0  0  0  0  0  0  0  0  0  0  0
   28.5300   29.1500   30.2300 C   0  0  0  0  0  0  0  0  0  0  0  0
   33.1700   31.6900   24.1300 C   0  0  1  0  0  0  0  0  0  0  0  0
   27.4500   28.5000   29.7700 C   0  0  0  0  0  0  0  0  0  0  0  0
   33.9700   30.4000   25.8300 C   0  0  1  0  0  0  0  0  0  0  0  0
   31.2200   28.5600   27.6000 C   0  0  2  0  0  0  0  0  0  0  0  0
   35.0400   30.1100   26.8500 C   0  0  2  0  0  0  0  0  0  0  0  0
   32.4600   28.2800   25.5300 C   0  0  0  0  0  0  0  0  0  0  0  0
   28.2400   29.7500   31.4700 N   0  0  0  0  0  0  0  0  0  0  0  0
   26.4100   28.7200   30.7000 N   0  0  0  0  0  0  0  0  0  0  0  0
   34.1300   31.5900   25.1200 N   0  0  0  0  0  0  0  0  0  0  0  0
   31.1900   28.3300   26.2700 N   0  0  0  0  0  0  0  0  0  0  0  0
   32.2800   28.7400   28.1500 O   0  0  0  0  0  0  0  0  0  0  0  0
   36.1100   30.6300   26.6100 O   0  0  0  0  0  0  0  0  0  0  0  0
   34.8400   29.2500   27.8900 O   0  0  0  0  0  0  0  0  0  0  0  0
   30.4700   31.2700   21.3400 H   0  0  0  0  0  0  0  0  0  0  0  0
   31.9700   33.2500   21.3700 H   0  0  0  0  0  0  0  0  0  0  0  0
   30.7500   29.5100   23.0600 H   0  0  0  0  0  0  0  0  0  0  0  0
   28.8200   27.1900   27.0300 H   0  0  0  0  0  0  0  0  0  0  0  0
   33.8300   33.4700   23.0700 H   0  0  0  0  0  0  0  0  0  0  0  0
   26.6500   27.3300   28.2000 H   0  0  0  0  0  0  0  0  0  0  0  0
   30.4800   29.9400   29.9700 H   0  0  0  0  0  0  0  0  0  0  0  0
   26.4600   29.5800   32.6700 H   0  0  0  0  0  0  0  0  0  0  0  0
   32.3800   27.7900   24.5500 H   0  0  0  0  0  0  0  0  0  0  0  0
   33.2000   27.6900   26.0800 H   0  0  0  0  0  0  0  0  0  0  0  0
   25.4700   28.3200   30.7200 H   0  0  0  0  0  0  0  0  0  0  0  0
   34.9300   32.2000   25.3100 H   0  0  0  0  0  0  0  0  0  0  0  0
   30.3600   27.9900   25.7900 H   0  0  0  0  0  0  0  0  0  0  0  0
   33.8700   29.1700   27.9900 H   0  0  0  0  0  0  0  0  0  0  0  0
  2  1  1  0
  3  1  1  0
  5  2  1  0
  6  4  1  0
  9  3  1  0
 10  7  1  0
 10  4  1  6
  9 11  1  6
 12  7  1  0
 13  9  1  0
 13  5  1  0
 14 12  1  0
 14  6  1  0
 15 11  1  6
 16 10  1  0
 17 15  1  0
 18 11  1  0
 19  8  1  0
 19 12  1  0
 20  8  1  0
 20 14  1  0
 21 15  1  0
 13 21  1  6
 22 18  1  0
 22 16  1  0
 16 23  1  1
 17 24  1  6
 25 17  1  0
 26  1  1  0
  2 27  1  6
  3 28  1  6
 29  4  1  0
  5 30  1  6
 31  6  1  0
  7 32  1  6
  8 33  1  6
 34 18  1  0
 35 18  1  0
 36 20  1  0
 37 21  1  0
 38 22  1  0
 39 25  1  0
M  END
